[General]
network = P2PNetwork
sim-time-limit = 120s

# Input and output files
*.topoFile = "topo.txt"
*.outputFile = "outputfile.txt"

# Randomized latency bounds for sendDelayed/sendDirect
#*.auto-flush = true
seed-set = ${repetition}
